Circuit: * C:\Users\lukas\git\bte5520_bte5530_kropl2_baumd3\Sensorknoten\SensorknotenPcb\Simulationen\AllesZusammen.asc

Direct Newton iteration failed to find .op point.  (Use ".option noopiter" to skip.)
Starting Gmin stepping
Gmin = 10
Gmin = 1.07374
Gmin = 0.115292
Gmin = 0.0123794
Gmin = 0.00132923
Gmin = 0.000142725
Gmin = 1.5325e-005
Gmin = 1.6455e-006
Gmin = 1.76685e-007
Gmin = 1.89714e-008
Gmin = 2.03704e-009
Gmin = 2.18725e-010
Gmin = 2.34854e-011
Gmin = 2.52173e-012
Gmin = 2.70769e-013
Gmin = 0
Gmin stepping succeeded in finding the operating point.

Ignoring empty pin current: Ix(u1:6)
Ignoring empty pin current: Ix(u1:8)
Ignoring empty pin current: Ix(u1:9)
Ignoring empty pin current: Ix(u1:6)
Ignoring empty pin current: Ix(u1:8)
Ignoring empty pin current: Ix(u1:9)

Date: Tue Mar 26 16:35:12 2019
Total elapsed time: 98.397 seconds.

tnom = 27
temp = 27
method = modified trap
totiter = 6619159
traniter = 6618768
tranpoints = 1654640
accept = 1157715
rejected = 496925
matrix size = 71
fillins = 55
solver = Normal
Matrix Compiler1: 6.90 KB object code size  4.1/2.2/[0.7]
Matrix Compiler2: 6.43 KB object code size  0.7/1.0/[0.5]

