Circuit: * C:\Users\lukas\git\bte5520_bte5530_kropl2_baumd3\Sensorknoten\SensorknotenPcb\Simulationen\Draft1.asc

V1: Missing value, assumed 0V @ DC

Date: Tue Feb 26 22:17:25 2019
Total elapsed time: 0.103 seconds.

tnom = 27
temp = 27
method = trap
totiter = 2099
traniter = 0
tranpoints = 0
accept = 0
rejected = 0
matrix size = 9
fillins = 5
solver = Normal
Matrix Compiler1: 702 bytes object code size  0.3/0.1/[0.1]
Matrix Compiler2: off  [0.1]/0.1/0.1

