Circuit: * C:\Users\lukas\git\bte5520_bte5530_kropl2_baumd3\Sensorknoten\SensorknotenPcb\Simulationen\EinAusschaltLogik.asc

Direct Newton iteration for .op point succeeded.
.step x=36
.step x=48
.step x=57


Measurement "energyq1" FAIL'ed

Measurement: prms
  step	RMS(i(v1)*v(vportp))	FROM	TO
     1	0.117789	0	0.1
     2	0.162428	0	0.1
     3	0.197654	0	0.1


Date: Fri Dec 14 15:22:59 2018
Total elapsed time: 149.652 seconds.

tnom = 27
temp = 27
method = modified trap
totiter = 12862867
traniter = 12862824
tranpoints = 4227853
accept = 3454296
rejected = 773557
matrix size = 24
fillins = 4
solver = Normal
Matrix Compiler1: 1.59 KB object code size  0.5/0.2/[0.1]
Matrix Compiler2:     158 opcodes  0.2/[0.2]/0.3

