Circuit: * C:\Users\lukas\git\bte5520_bte5530_kropl2_baumd3\Sensorknoten\SensorknotenPcb\Simulationen\EinAusschaltLogikAlternativ.asc

WARNING: Less than two connections to node NC_01.  This node is used by R1.
WARNING: Less than two connections to node NC_02.  This node is used by R3.
Direct Newton iteration for .op point succeeded.
.step x=36
.step x=48
.step x=57


Measurement "energyq1" FAIL'ed

Measurement "prms" FAIL'ed


Date: Fri Dec 14 15:19:37 2018
Total elapsed time: 126.470 seconds.

tnom = 27
temp = 27
method = modified trap
totiter = 12733530
traniter = 12733503
tranpoints = 4163185
accept = 3505243
rejected = 657942
matrix size = 21
fillins = 0
solver = Normal
Matrix Compiler1:      56 opcodes  0.4/0.2/[0.2]
Matrix Compiler2: off  [0.1]/0.5/0.7

