Circuit: * C:\Users\lukas\git\bte5520_bte5530_kropl2_baumd3\Sensorknoten\SensorknotenPcb\Simulationen\feedback.asc

Direct Newton iteration for .op point succeeded.
.step x=33000
.step x=66400
.step x=100000
.step x=1e+009

Date: Thu Sep 06 23:24:43 2018
Total elapsed time: 0.176 seconds.

tnom = 27
temp = 27
method = modified trap
totiter = 2116
traniter = 2102
tranpoints = 1052
accept = 1050
rejected = 2
matrix size = 13
fillins = 2
solver = Normal
Matrix Compiler1: 928 bytes object code size  0.3/0.2/[0.1]
Matrix Compiler2: 1.07 KB object code size  0.2/0.2/[0.1]

