Circuit: * C:\Users\lukas\git\nadiav2\Sensorknoten\SensorknotenPcb\Simulationen\Spannungsdrop.asc

Direct Newton iteration for .op point succeeded.

Date: Mon Aug 12 11:50:08 2019
Total elapsed time: 0.129 seconds.

tnom = 27
temp = 27
method = modified trap
totiter = 2420
traniter = 2410
tranpoints = 1194
accept = 1156
rejected = 38
matrix size = 2
fillins = 0
solver = Normal
Matrix Compiler1: off  [0.0]/0.1/0.1
Matrix Compiler2: off  [0.1]/0.1/0.1

